/*--------------------------------*- C++ -*----------------------------------*\
| =========                 |                                                 |
| \\      /  F ield         | OpenFOAM: The Open Source CFD Toolbox           |
|  \\    /   O peration     | Version:  v2406                                 |
|   \\  /    A nd           | Website:  www.openfoam.com                      |
|    \\/     M anipulation  |                                                 |
\*---------------------------------------------------------------------------*/
FoamFile
{
    version     2.0;
    format      ascii;
    class       dictionary;
    location    "constant";
    object      thermophysicalProperties;
}
// * * * * * * * * * * * * * * * * * * * * * * * * * * * * * * * * * * * * * //
// Non-reacting H2/air mixture for cryogenic dispersion — Hecht & Panda (2019).
//
// H2  : para-H2 tabulated from CoolProp 'parahydrogen' (Leachman et al. 2009
//        EOS, identical to NIST REFPROP).  Covers 50–350 K at 1 atm.
//        h = 0 at T_ref = 298.15 K.
// air : tabulated from GRI3.0 JANAF low-range coefficients (valid 200–1000 K;
//        extrapolation to 50 K introduces < 2 % error in Cp since air Cp is
//        nearly constant at ~990–1015 J/kg/K over this range).
//        h = 0 at T_ref = 298.15 K (consistent with H2 reference).
// transport : Sutherland for both species (mu = As*T^1.5 / (T + Ts)).
// * * * * * * * * * * * * * * * * * * * * * * * * * * * * * * * * * * * * * //

thermoType
{
    type            hePsiThermo;
    mixture         multiComponentMixture;
    transport       sutherland;
    thermo          hTabulated;
    energy          sensibleEnthalpy;
    equationOfState perfectGas;
    specie          specie;
}

species
(
    H2
    air
);

inertSpecie air;

// ─── H2 : para-hydrogen ──────────────────────────────────────────────────────
// Source : CoolProp 'parahydrogen' (Leachman et al. 2009 EOS)
// P      : 101325 Pa (gas-phase, near-ideal throughout range)
// Cp peak ~16 300 J/kg/K near 170 K — quantum rotational excitation of para-H2
H2
{
    specie
    {
        molWeight       2.01588;
    }
    thermodynamics
    {
        Tlow            50;
        Thigh           350;

        values
        (
            // ( T [K]    h [J/kg]        Cp [J/kg/K] )
            (   50.0     -3661430.75    10547.64 )
            (   55.0     -3608570.39    10605.37 )
            (   60.0     -3555282.98    10719.46 )
            (   65.0     -3501274.28    10894.34 )
            (   70.0     -3446236.82    11130.73 )
            (   75.0     -3389870.08    11425.14 )
            (   80.0     -3331900.75    11770.26 )
            (   85.0     -3272099.96    12155.82 )
            (   90.0     -3210295.48    12569.61 )
            (   95.0     -3146378.37    12998.70 )
            (  100.0     -3080304.27    13430.36 )
            (  105.0     -3012090.00    13852.94 )
            (  110.0     -2941806.93    14256.37 )
            (  115.0     -2869571.90    14632.53 )
            (  120.0     -2795537.31    14975.35 )
            (  125.0     -2719880.90    15280.74 )
            (  130.0     -2642796.18    15546.44 )
            (  135.0     -2564483.87    15771.78 )
            (  140.0     -2485144.68    15957.39 )
            (  145.0     -2404973.42    16104.95 )
// ... 36 like lines cut
        );
    }
    transport
    {
        // mu(50 K) ≈ 1.66 µPa·s vs NIST 1.72 µPa·s — ~3 % error
        As              6.897e-07;
        Ts              97;
    }
}

// ─── air : dry air ────────────────────────────────────────────────────────────
// Source : GRI3.0 JANAF low-range coefficients integrated numerically.
// Cp is nearly constant (986–1016 J/kg/K) over 50–350 K; tabulation here
// ensures consistency with the hTabulated thermoType used for H2.
air
{
    specie
    {
        molWeight       28.850334;
    }
    thermodynamics
    {
        Tlow            50;
        Thigh           350;

        values
        (
            // ( T [K]    h [J/kg]        Cp [J/kg/K] )
            (   50.0      -247687.49      986.16 )
            (   55.0      -242755.27      986.72 )
            (   60.0      -237820.26      987.28 )
            (   65.0      -232882.51      987.82 )
            (   70.0      -227942.06      988.36 )
            (   75.0      -222998.96      988.88 )
            (   80.0      -218053.25      989.40 )
            (   85.0      -213104.96      989.91 )
            (   90.0      -208154.13      990.42 )
            (   95.0      -203200.81      990.91 )
            (  100.0      -198245.02      991.40 )
            (  105.0      -193286.79      991.89 )
            (  110.0      -188326.15      992.37 )
            (  115.0      -183363.13      992.84 )
            (  120.0      -178397.75      993.31 )
            (  125.0      -173430.03      993.78 )
            (  130.0      -168460.00      994.24 )
            (  135.0      -163487.68      994.69 )
            (  140.0      -158513.07      995.15 )
            (  145.0      -153536.20      995.60 )
// ... 36 like lines cut
        );
    }
    transport
    {
        // Frank White 2006, 190–2000 K; As corrected for OpenFOAM Sutherland model
        As              1.459e-06;
        Ts              111;
    }
}

// ************************************************************************* //
